135
Lattice="12.09378762 0.0 0.0 0.0 12.09378762 0.0 0.0 0.0 12.09378762" Properties=species:S:1:pos:R:3 pbc="T T T"
Ca       5.88562597       1.28502197       7.52223343
Ca       3.51999002       1.67310231       0.95618619
Ca       3.91908294       5.93628036      11.09061914
Ca       7.43577595      10.23409149       4.26091588
Ca       7.81104021       9.25926011       0.06086542
Ca       7.91186544       4.95015587      10.31994695
Ca      11.88227230       0.09636742       7.37276894
Ca       4.74478751       0.48679614       4.23090618
Ca       3.71470991       3.40371537       9.21542546
Ca      11.73753171       5.49365236       4.91050065
Ca       3.16596758      11.97756573       8.77131666
Ca       2.38200848       4.84997843       2.86586006
Ca       4.43532898      10.57102550      11.91334899
Ca      11.06113214       1.70149885       5.00273559
Ca       0.03950810       6.17420786       8.87794661
Ca       9.84576440       5.30649467       0.83021415
Ca       2.55326393       8.40713506       9.01689546
Ca       0.43122500       2.92365943      10.26047043
Ca       8.71556950       4.11680389       3.47435816
Ca       2.11107098       9.59060767       2.48370247
Ca       5.79567637       7.02593711       4.93683451
Ca      11.71454444       7.61617582       2.78749023
Ca      11.95958103      10.19001896      11.10866220
Ca       9.68993348      11.03459039       2.05328117
Ca       8.92913474       3.38661594       6.63578663
Ca       8.71799478      11.27109018       6.76715967
Ca       5.76191527       7.87918490       9.54171189
Si       0.80238397       3.26209872       6.92777675
Si       6.09559041       2.69205187      11.81248653
Si       6.12394904      10.62313752       9.12021555
Si       6.47507193       4.90868340       7.55573686
Si       6.15369704       5.37333207       1.84521671
Si      10.10661269       1.38853663       9.11086444
Si       3.13707501       2.89102871       5.94043841
Si       1.77116672       0.44381830       4.22230593
Si       3.70952593       6.55971621       7.24054970
Si      10.34435063       1.90542419       1.56773803
Si       7.82436049       1.39846350       3.83733924
Si       9.44491882       7.38713973      11.29160300
Si       0.98416133       5.04273822       0.36698988
Si       0.80763371       2.60738815       2.61870247
Si       2.70919371       7.50407995       4.88443875
Si       2.40778900       7.80734714       0.43426493
Si      10.68525955       8.77119540       8.37701191
Si       8.34220161       0.85087414      11.41053324
Si       6.65565589       0.36981644       1.54918590
Si       5.01871274      10.22108102       6.71012138
Si       8.68292578       7.01681899       7.11839023
Si       5.22009610       8.00607723       1.33889702
Si       9.24942269       7.40492910       3.77595705
Si       5.55841304       3.80235142       4.17256084
Si       1.86650557      12.03686932      11.30174537
Si       1.64473836       9.80829283       5.88033852
Si      11.10557195       9.73167237       4.58345170
O        7.63106665       7.57008870      10.70066350
O        2.65800567       1.34423685      10.87427234
O        8.12319244       5.44886401       7.51620060
O        8.77989710       2.48084129       4.73189719
O        5.90559975       2.05363740       1.26552847
O        6.35654700       2.16283132       3.49778183
O        6.78419238       3.25564427       7.02587183
O        9.99975021       5.83726688       3.44156913
O        5.52527767       1.92740052      10.65141103
O       11.90997901       3.72474038       3.65131508
O       11.52800217       9.74507122       2.88596475
O        5.04492649      11.84893702       9.36796266
O       10.11787605       1.06658661       2.90703946
O        4.93866175       4.49147786       2.85061406
O       10.24209109      10.29140734       7.71051561
O        3.53146324       5.02672050       7.52056656
O        5.41692848       6.74370768       2.17435433
O        9.71315120       5.56010799      10.81778607
O        0.25222793       4.94149639      11.06893844
O        3.75813158       8.82896914       1.38913683
O        1.86978478       7.26577845       6.65206117
O        5.55358989       6.22067764       6.94603654
O        8.34610397       8.37123437       2.91142114
O       10.47745323       8.21151231      10.02237082
O        5.13744699       9.68480367       8.13003175
O        0.86258586       1.73924645       6.38296882
O        2.38791140       2.70152180       2.59647396
O       11.29952205       3.91627295       6.67625351
O        7.35076744       0.48155507       5.19585632
O        1.04380518       8.81264030       0.52034316
O        5.80535950       4.69575311       0.39570421
O        3.62017282       6.24114074       4.24143367
O        2.71159802       6.30248551       1.00290196
O        1.43292115      11.10549834      10.02429498
O        3.98505306       7.86694113       6.20287537
O       10.51189371       8.17083743       4.45882036
O        3.05139180      11.60092116       3.72072088
O        6.25812830       9.97142072      10.64878654
O        6.67905700       4.85712596       4.66606641
O        7.09429351      11.89115724      11.84792597
O        6.16697798       9.41069962       1.54354209
O        1.43991076       7.30939721       3.99659319
O        5.36306852       4.90233338       8.96990296
O        2.51463693       7.56484194      10.90206856
O        6.87022423      11.16654349       7.72620995
O        9.91755388       1.42712005       6.96447820
O        0.53893096      11.44444213       5.00227336
O        3.80511634       6.85403725       9.02441942
O        9.80794068       7.48469044       0.82356282
O       11.86659211       2.34202350       1.46181661
O        7.52641498       5.35854937       2.34211006
O        2.70447022       9.27689295       4.81564206
O        9.44784851      10.68721825       4.81199345
O       11.61484535       0.87978486       9.57280958
O        9.31389499       3.20576197       1.20006029
O        0.15839680       5.60887732       1.64152867
O        0.89103319       0.82631802       2.84315499
O        9.10996756       0.56015222       9.93523683
O        7.64185959      11.95366117       2.64130157
O        4.82459308       7.78356468      11.94847633
O        9.83978410      10.02514968      11.64181145
O        2.90067899       1.64861565       4.94501800
O        9.72554651       3.03095650       9.26084126
O        2.65616116      11.52895891       0.38287636
O        0.37319798       0.35781705      11.82576254
O        5.73623790       9.67682604       5.28100547
O        2.01195071       4.12016598       6.05986574
O        5.30577002      12.02623924       2.11361405
O        3.58370109       2.10747405       7.63814506
O        1.03401327       3.53251562       8.52785333
O       10.39137574       7.21285936       7.49396382
O       12.07794564       9.41642276       5.83543227
O        9.72833679       0.67617401       0.07221323
O        0.28623977       8.55859938       8.57394735
O        2.11313952       3.92705313       0.77336298
O        7.86861160       8.24911224       7.24219647
O        7.82736150       2.55888799      11.23897962
O        2.24233567      10.34143863       7.28797564
O        4.72386261       3.28725446       5.51018659
O        8.66277662       6.95582318       5.30097806
O        4.58030190      11.99260999       6.52813527
